[pytest]
testpaths = tests
python_files = test_*.py
python_functions = test_*
addopts = -p no:zarr
markers =
    integration: tests that require TELEMAC installation
